#\#CIF_2.0
data_CELSLC

# Crystal data
_pd_phase_name                         'Super Cell'
_cell_length_a                         15.620001
_cell_length_b                         15.620001
_cell_length_c                         15.620001
_cell_angle_alpha                      90.0000
_cell_angle_beta                       90.0000
_cell_angle_gamma                      90.0000
_symmetry_space_group_name_H-M_alt     'P 1'
_symmetry_Int_Tables_number            1

# Symmetry operations
loop_
    _space_group_symop_id
    _space_group_symop_operation_xyz
    1    'x,y,z'

# Atomic types
loop_
    _atom_site_type_symbol
    _atom_type_oxidation_number
    Ti  0.0000
    Sr  0.0000
    O  0.0000

# Atomic sites
loop_
    _atom_site_label
    _atom_site_type_symbol
    _atom_site_occupancy
    _atom_site_fract_x
    _atom_site_fract_y
    _atom_site_fract_z
    _atom_site_thermal_displace_type
    _atom_site_U_iso_or_equiv
    Ti1  Ti  1.0000  0.187500  0.187500  0.187500  Uiso  0.006459
    Ti1  Ti  1.0000  0.187500  0.187500  0.437500  Uiso  0.006459
    Ti1  Ti  1.0000  0.187500  0.187500  0.687500  Uiso  0.006459
    Ti1  Ti  1.0000  0.187500  0.187500  0.937500  Uiso  0.006459
    Ti1  Ti  1.0000  0.437500  0.187500  0.187500  Uiso  0.006459
    Ti1  Ti  1.0000  0.437500  0.187500  0.437500  Uiso  0.006459
    Ti1  Ti  1.0000  0.437500  0.187500  0.687500  Uiso  0.006459
    Ti1  Ti  1.0000  0.437500  0.187500  0.937500  Uiso  0.006459
    Ti1  Ti  1.0000  0.687500  0.187500  0.187500  Uiso  0.006459
    Ti1  Ti  1.0000  0.687500  0.187500  0.437500  Uiso  0.006459
    Ti1  Ti  1.0000  0.687500  0.187500  0.687500  Uiso  0.006459
    Ti1  Ti  1.0000  0.687500  0.187500  0.937500  Uiso  0.006459
    Ti1  Ti  1.0000  0.937500  0.187500  0.187500  Uiso  0.006459
    Ti1  Ti  1.0000  0.937500  0.187500  0.437500  Uiso  0.006459
    Ti1  Ti  1.0000  0.937500  0.187500  0.687500  Uiso  0.006459
    Ti1  Ti  1.0000  0.937500  0.187500  0.937500  Uiso  0.006459
    Ti1  Ti  1.0000  0.187500  0.437500  0.187500  Uiso  0.006459
    Ti1  Ti  1.0000  0.187500  0.437500  0.437500  Uiso  0.006459
    Ti1  Ti  1.0000  0.187500  0.437500  0.687500  Uiso  0.006459
    Ti1  Ti  1.0000  0.187500  0.437500  0.937500  Uiso  0.006459
    Ti1  Ti  1.0000  0.437500  0.437500  0.187500  Uiso  0.006459
    Ti1  Ti  1.0000  0.437500  0.437500  0.437500  Uiso  0.006459
    Ti1  Ti  1.0000  0.437500  0.437500  0.687500  Uiso  0.006459
    Ti1  Ti  1.0000  0.437500  0.437500  0.937500  Uiso  0.006459
    Ti1  Ti  1.0000  0.687500  0.437500  0.187500  Uiso  0.006459
    Ti1  Ti  1.0000  0.687500  0.437500  0.437500  Uiso  0.006459
    Ti1  Ti  1.0000  0.687500  0.437500  0.687500  Uiso  0.006459
    Ti1  Ti  1.0000  0.687500  0.437500  0.937500  Uiso  0.006459
    Ti1  Ti  1.0000  0.937500  0.437500  0.187500  Uiso  0.006459
    Ti1  Ti  1.0000  0.937500  0.437500  0.437500  Uiso  0.006459
    Ti1  Ti  1.0000  0.937500  0.437500  0.687500  Uiso  0.006459
    Ti1  Ti  1.0000  0.937500  0.437500  0.937500  Uiso  0.006459
    Ti1  Ti  1.0000  0.187500  0.687500  0.187500  Uiso  0.006459
    Ti1  Ti  1.0000  0.187500  0.687500  0.437500  Uiso  0.006459
    Ti1  Ti  1.0000  0.187500  0.687500  0.687500  Uiso  0.006459
    Ti1  Ti  1.0000  0.187500  0.687500  0.937500  Uiso  0.006459
    Ti1  Ti  1.0000  0.437500  0.687500  0.187500  Uiso  0.006459
    Ti1  Ti  1.0000  0.437500  0.687500  0.437500  Uiso  0.006459
    Ti1  Ti  1.0000  0.437500  0.687500  0.687500  Uiso  0.006459
    Ti1  Ti  1.0000  0.437500  0.687500  0.937500  Uiso  0.006459
    Ti1  Ti  1.0000  0.687500  0.687500  0.187500  Uiso  0.006459
    Ti1  Ti  1.0000  0.687500  0.687500  0.437500  Uiso  0.006459
    Ti1  Ti  1.0000  0.687500  0.687500  0.687500  Uiso  0.006459
    Ti1  Ti  1.0000  0.687500  0.687500  0.937500  Uiso  0.006459
    Ti1  Ti  1.0000  0.937500  0.687500  0.187500  Uiso  0.006459
    Ti1  Ti  1.0000  0.937500  0.687500  0.437500  Uiso  0.006459
    Ti1  Ti  1.0000  0.937500  0.687500  0.687500  Uiso  0.006459
    Ti1  Ti  1.0000  0.937500  0.687500  0.937500  Uiso  0.006459
    Ti1  Ti  1.0000  0.187500  0.937500  0.187500  Uiso  0.006459
    Ti1  Ti  1.0000  0.187500  0.937500  0.437500  Uiso  0.006459
    Ti1  Ti  1.0000  0.187500  0.937500  0.687500  Uiso  0.006459
    Ti1  Ti  1.0000  0.187500  0.937500  0.937500  Uiso  0.006459
    Ti1  Ti  1.0000  0.437500  0.937500  0.187500  Uiso  0.006459
    Ti1  Ti  1.0000  0.437500  0.937500  0.437500  Uiso  0.006459
    Ti1  Ti  1.0000  0.437500  0.937500  0.687500  Uiso  0.006459
    Ti1  Ti  1.0000  0.437500  0.937500  0.937500  Uiso  0.006459
    Ti1  Ti  1.0000  0.687500  0.937500  0.187500  Uiso  0.006459
    Ti1  Ti  1.0000  0.687500  0.937500  0.437500  Uiso  0.006459
    Ti1  Ti  1.0000  0.687500  0.937500  0.687500  Uiso  0.006459
    Ti1  Ti  1.0000  0.687500  0.937500  0.937500  Uiso  0.006459
    Ti1  Ti  1.0000  0.937500  0.937500  0.187500  Uiso  0.006459
    Ti1  Ti  1.0000  0.937500  0.937500  0.437500  Uiso  0.006459
    Ti1  Ti  1.0000  0.937500  0.937500  0.687500  Uiso  0.006459
    Ti1  Ti  1.0000  0.937500  0.937500  0.937500  Uiso  0.006459
    Sr1  Sr  1.0000  0.062500  0.062500  0.062500  Uiso  0.008359
    Sr1  Sr  1.0000  0.062500  0.062500  0.312500  Uiso  0.008359
    Sr1  Sr  1.0000  0.062500  0.062500  0.562500  Uiso  0.008359
    Sr1  Sr  1.0000  0.062500  0.062500  0.812500  Uiso  0.008359
    Sr1  Sr  1.0000  0.312500  0.062500  0.062500  Uiso  0.008359
    Sr1  Sr  1.0000  0.312500  0.062500  0.312500  Uiso  0.008359
    Sr1  Sr  1.0000  0.312500  0.062500  0.562500  Uiso  0.008359
    Sr1  Sr  1.0000  0.312500  0.062500  0.812500  Uiso  0.008359
    Sr1  Sr  1.0000  0.562500  0.062500  0.062500  Uiso  0.008359
    Sr1  Sr  1.0000  0.562500  0.062500  0.312500  Uiso  0.008359
    Sr1  Sr  1.0000  0.562500  0.062500  0.562500  Uiso  0.008359
    Sr1  Sr  1.0000  0.562500  0.062500  0.812500  Uiso  0.008359
    Sr1  Sr  1.0000  0.812500  0.062500  0.062500  Uiso  0.008359
    Sr1  Sr  1.0000  0.812500  0.062500  0.312500  Uiso  0.008359
    Sr1  Sr  1.0000  0.812500  0.062500  0.562500  Uiso  0.008359
    Sr1  Sr  1.0000  0.812500  0.062500  0.812500  Uiso  0.008359
    Sr1  Sr  1.0000  0.062500  0.312500  0.062500  Uiso  0.008359
    Sr1  Sr  1.0000  0.062500  0.312500  0.312500  Uiso  0.008359
    Sr1  Sr  1.0000  0.062500  0.312500  0.562500  Uiso  0.008359
    Sr1  Sr  1.0000  0.062500  0.312500  0.812500  Uiso  0.008359
    Sr1  Sr  1.0000  0.312500  0.312500  0.062500  Uiso  0.008359
    Sr1  Sr  1.0000  0.312500  0.312500  0.312500  Uiso  0.008359
    Sr1  Sr  1.0000  0.312500  0.312500  0.562500  Uiso  0.008359
    Sr1  Sr  1.0000  0.312500  0.312500  0.812500  Uiso  0.008359
    Sr1  Sr  1.0000  0.562500  0.312500  0.062500  Uiso  0.008359
    Sr1  Sr  1.0000  0.562500  0.312500  0.312500  Uiso  0.008359
    Sr1  Sr  1.0000  0.562500  0.312500  0.562500  Uiso  0.008359
    Sr1  Sr  1.0000  0.562500  0.312500  0.812500  Uiso  0.008359
    Sr1  Sr  1.0000  0.812500  0.312500  0.062500  Uiso  0.008359
    Sr1  Sr  1.0000  0.812500  0.312500  0.312500  Uiso  0.008359
    Sr1  Sr  1.0000  0.812500  0.312500  0.562500  Uiso  0.008359
    Sr1  Sr  1.0000  0.812500  0.312500  0.812500  Uiso  0.008359
    Sr1  Sr  1.0000  0.062500  0.562500  0.062500  Uiso  0.008359
    Sr1  Sr  1.0000  0.062500  0.562500  0.312500  Uiso  0.008359
    Sr1  Sr  1.0000  0.062500  0.562500  0.562500  Uiso  0.008359
    Sr1  Sr  1.0000  0.062500  0.562500  0.812500  Uiso  0.008359
    Sr1  Sr  1.0000  0.312500  0.562500  0.062500  Uiso  0.008359
    Sr1  Sr  1.0000  0.312500  0.562500  0.312500  Uiso  0.008359
    Sr1  Sr  1.0000  0.312500  0.562500  0.562500  Uiso  0.008359
    Sr1  Sr  1.0000  0.312500  0.562500  0.812500  Uiso  0.008359
    Sr1  Sr  1.0000  0.562500  0.562500  0.062500  Uiso  0.008359
    Sr1  Sr  1.0000  0.562500  0.562500  0.312500  Uiso  0.008359
    Sr1  Sr  1.0000  0.562500  0.562500  0.562500  Uiso  0.008359
    Sr1  Sr  1.0000  0.562500  0.562500  0.812500  Uiso  0.008359
    Sr1  Sr  1.0000  0.812500  0.562500  0.062500  Uiso  0.008359
    Sr1  Sr  1.0000  0.812500  0.562500  0.312500  Uiso  0.008359
    Sr1  Sr  1.0000  0.812500  0.562500  0.562500  Uiso  0.008359
    Sr1  Sr  1.0000  0.812500  0.562500  0.812500  Uiso  0.008359
    Sr1  Sr  1.0000  0.062500  0.812500  0.062500  Uiso  0.008359
    Sr1  Sr  1.0000  0.062500  0.812500  0.312500  Uiso  0.008359
    Sr1  Sr  1.0000  0.062500  0.812500  0.562500  Uiso  0.008359
    Sr1  Sr  1.0000  0.062500  0.812500  0.812500  Uiso  0.008359
    Sr1  Sr  1.0000  0.312500  0.812500  0.062500  Uiso  0.008359
    Sr1  Sr  1.0000  0.312500  0.812500  0.312500  Uiso  0.008359
    Sr1  Sr  1.0000  0.312500  0.812500  0.562500  Uiso  0.008359
    Sr1  Sr  1.0000  0.312500  0.812500  0.812500  Uiso  0.008359
    Sr1  Sr  1.0000  0.562500  0.812500  0.062500  Uiso  0.008359
    Sr1  Sr  1.0000  0.562500  0.812500  0.312500  Uiso  0.008359
    Sr1  Sr  1.0000  0.562500  0.812500  0.562500  Uiso  0.008359
    Sr1  Sr  1.0000  0.562500  0.812500  0.812500  Uiso  0.008359
    Sr1  Sr  1.0000  0.812500  0.812500  0.062500  Uiso  0.008359
    Sr1  Sr  1.0000  0.812500  0.812500  0.312500  Uiso  0.008359
    Sr1  Sr  1.0000  0.812500  0.812500  0.562500  Uiso  0.008359
    Sr1  Sr  1.0000  0.812500  0.812500  0.812500  Uiso  0.008359
    O1  O  1.0000  0.187500  0.187500  0.062500  Uiso  0.013678
    O1  O  1.0000  0.187500  0.187500  0.312500  Uiso  0.013678
    O1  O  1.0000  0.187500  0.187500  0.562500  Uiso  0.013678
    O1  O  1.0000  0.187500  0.187500  0.812500  Uiso  0.013678
    O1  O  1.0000  0.437500  0.187500  0.062500  Uiso  0.013678
    O1  O  1.0000  0.437500  0.187500  0.312500  Uiso  0.013678
    O1  O  1.0000  0.437500  0.187500  0.562500  Uiso  0.013678
    O1  O  1.0000  0.437500  0.187500  0.812500  Uiso  0.013678
    O1  O  1.0000  0.687500  0.187500  0.062500  Uiso  0.013678
    O1  O  1.0000  0.687500  0.187500  0.312500  Uiso  0.013678
    O1  O  1.0000  0.687500  0.187500  0.562500  Uiso  0.013678
    O1  O  1.0000  0.687500  0.187500  0.812500  Uiso  0.013678
    O1  O  1.0000  0.937500  0.187500  0.062500  Uiso  0.013678
    O1  O  1.0000  0.937500  0.187500  0.312500  Uiso  0.013678
    O1  O  1.0000  0.937500  0.187500  0.562500  Uiso  0.013678
    O1  O  1.0000  0.937500  0.187500  0.812500  Uiso  0.013678
    O1  O  1.0000  0.187500  0.437500  0.062500  Uiso  0.013678
    O1  O  1.0000  0.187500  0.437500  0.312500  Uiso  0.013678
    O1  O  1.0000  0.187500  0.437500  0.562500  Uiso  0.013678
    O1  O  1.0000  0.187500  0.437500  0.812500  Uiso  0.013678
    O1  O  1.0000  0.437500  0.437500  0.062500  Uiso  0.013678
    O1  O  1.0000  0.437500  0.437500  0.312500  Uiso  0.013678
    O1  O  1.0000  0.437500  0.437500  0.562500  Uiso  0.013678
    O1  O  1.0000  0.437500  0.437500  0.812500  Uiso  0.013678
    O1  O  1.0000  0.687500  0.437500  0.062500  Uiso  0.013678
    O1  O  1.0000  0.687500  0.437500  0.312500  Uiso  0.013678
    O1  O  1.0000  0.687500  0.437500  0.562500  Uiso  0.013678
    O1  O  1.0000  0.687500  0.437500  0.812500  Uiso  0.013678
    O1  O  1.0000  0.937500  0.437500  0.062500  Uiso  0.013678
    O1  O  1.0000  0.937500  0.437500  0.312500  Uiso  0.013678
    O1  O  1.0000  0.937500  0.437500  0.562500  Uiso  0.013678
    O1  O  1.0000  0.937500  0.437500  0.812500  Uiso  0.013678
    O1  O  1.0000  0.187500  0.687500  0.062500  Uiso  0.013678
    O1  O  1.0000  0.187500  0.687500  0.312500  Uiso  0.013678
    O1  O  1.0000  0.187500  0.687500  0.562500  Uiso  0.013678
    O1  O  1.0000  0.187500  0.687500  0.812500  Uiso  0.013678
    O1  O  1.0000  0.437500  0.687500  0.062500  Uiso  0.013678
    O1  O  1.0000  0.437500  0.687500  0.312500  Uiso  0.013678
    O1  O  1.0000  0.437500  0.687500  0.562500  Uiso  0.013678
    O1  O  1.0000  0.437500  0.687500  0.812500  Uiso  0.013678
    O1  O  1.0000  0.687500  0.687500  0.062500  Uiso  0.013678
    O1  O  1.0000  0.687500  0.687500  0.312500  Uiso  0.013678
    O1  O  1.0000  0.687500  0.687500  0.562500  Uiso  0.013678
    O1  O  1.0000  0.687500  0.687500  0.812500  Uiso  0.013678
    O1  O  1.0000  0.937500  0.687500  0.062500  Uiso  0.013678
    O1  O  1.0000  0.937500  0.687500  0.312500  Uiso  0.013678
    O1  O  1.0000  0.937500  0.687500  0.562500  Uiso  0.013678
    O1  O  1.0000  0.937500  0.687500  0.812500  Uiso  0.013678
    O1  O  1.0000  0.187500  0.937500  0.062500  Uiso  0.013678
    O1  O  1.0000  0.187500  0.937500  0.312500  Uiso  0.013678
    O1  O  1.0000  0.187500  0.937500  0.562500  Uiso  0.013678
    O1  O  1.0000  0.187500  0.937500  0.812500  Uiso  0.013678
    O1  O  1.0000  0.437500  0.937500  0.062500  Uiso  0.013678
    O1  O  1.0000  0.437500  0.937500  0.312500  Uiso  0.013678
    O1  O  1.0000  0.437500  0.937500  0.562500  Uiso  0.013678
    O1  O  1.0000  0.437500  0.937500  0.812500  Uiso  0.013678
    O1  O  1.0000  0.687500  0.937500  0.062500  Uiso  0.013678
    O1  O  1.0000  0.687500  0.937500  0.312500  Uiso  0.013678
    O1  O  1.0000  0.687500  0.937500  0.562500  Uiso  0.013678
    O1  O  1.0000  0.687500  0.937500  0.812500  Uiso  0.013678
    O1  O  1.0000  0.937500  0.937500  0.062500  Uiso  0.013678
    O1  O  1.0000  0.937500  0.937500  0.312500  Uiso  0.013678
    O1  O  1.0000  0.937500  0.937500  0.562500  Uiso  0.013678
    O1  O  1.0000  0.937500  0.937500  0.812500  Uiso  0.013678
    O1  O  1.0000  0.187500  0.062500  0.187500  Uiso  0.013678
    O1  O  1.0000  0.187500  0.062500  0.437500  Uiso  0.013678
    O1  O  1.0000  0.187500  0.062500  0.687500  Uiso  0.013678
    O1  O  1.0000  0.187500  0.062500  0.937500  Uiso  0.013678
    O1  O  1.0000  0.437500  0.062500  0.187500  Uiso  0.013678
    O1  O  1.0000  0.437500  0.062500  0.437500  Uiso  0.013678
    O1  O  1.0000  0.437500  0.062500  0.687500  Uiso  0.013678
    O1  O  1.0000  0.437500  0.062500  0.937500  Uiso  0.013678
    O1  O  1.0000  0.687500  0.062500  0.187500  Uiso  0.013678
    O1  O  1.0000  0.687500  0.062500  0.437500  Uiso  0.013678
    O1  O  1.0000  0.687500  0.062500  0.687500  Uiso  0.013678
    O1  O  1.0000  0.687500  0.062500  0.937500  Uiso  0.013678
    O1  O  1.0000  0.937500  0.062500  0.187500  Uiso  0.013678
    O1  O  1.0000  0.937500  0.062500  0.437500  Uiso  0.013678
    O1  O  1.0000  0.937500  0.062500  0.687500  Uiso  0.013678
    O1  O  1.0000  0.937500  0.062500  0.937500  Uiso  0.013678
    O1  O  1.0000  0.187500  0.312500  0.187500  Uiso  0.013678
    O1  O  1.0000  0.187500  0.312500  0.437500  Uiso  0.013678
    O1  O  1.0000  0.187500  0.312500  0.687500  Uiso  0.013678
    O1  O  1.0000  0.187500  0.312500  0.937500  Uiso  0.013678
    O1  O  1.0000  0.437500  0.312500  0.187500  Uiso  0.013678
    O1  O  1.0000  0.437500  0.312500  0.437500  Uiso  0.013678
    O1  O  1.0000  0.437500  0.312500  0.687500  Uiso  0.013678
    O1  O  1.0000  0.437500  0.312500  0.937500  Uiso  0.013678
    O1  O  1.0000  0.687500  0.312500  0.187500  Uiso  0.013678
    O1  O  1.0000  0.687500  0.312500  0.437500  Uiso  0.013678
    O1  O  1.0000  0.687500  0.312500  0.687500  Uiso  0.013678
    O1  O  1.0000  0.687500  0.312500  0.937500  Uiso  0.013678
    O1  O  1.0000  0.937500  0.312500  0.187500  Uiso  0.013678
    O1  O  1.0000  0.937500  0.312500  0.437500  Uiso  0.013678
    O1  O  1.0000  0.937500  0.312500  0.687500  Uiso  0.013678
    O1  O  1.0000  0.937500  0.312500  0.937500  Uiso  0.013678
    O1  O  1.0000  0.187500  0.562500  0.187500  Uiso  0.013678
    O1  O  1.0000  0.187500  0.562500  0.437500  Uiso  0.013678
    O1  O  1.0000  0.187500  0.562500  0.687500  Uiso  0.013678
    O1  O  1.0000  0.187500  0.562500  0.937500  Uiso  0.013678
    O1  O  1.0000  0.437500  0.562500  0.187500  Uiso  0.013678
    O1  O  1.0000  0.437500  0.562500  0.437500  Uiso  0.013678
    O1  O  1.0000  0.437500  0.562500  0.687500  Uiso  0.013678
    O1  O  1.0000  0.437500  0.562500  0.937500  Uiso  0.013678
    O1  O  1.0000  0.687500  0.562500  0.187500  Uiso  0.013678
    O1  O  1.0000  0.687500  0.562500  0.437500  Uiso  0.013678
    O1  O  1.0000  0.687500  0.562500  0.687500  Uiso  0.013678
    O1  O  1.0000  0.687500  0.562500  0.937500  Uiso  0.013678
    O1  O  1.0000  0.937500  0.562500  0.187500  Uiso  0.013678
    O1  O  1.0000  0.937500  0.562500  0.437500  Uiso  0.013678
    O1  O  1.0000  0.937500  0.562500  0.687500  Uiso  0.013678
    O1  O  1.0000  0.937500  0.562500  0.937500  Uiso  0.013678
    O1  O  1.0000  0.187500  0.812500  0.187500  Uiso  0.013678
    O1  O  1.0000  0.187500  0.812500  0.437500  Uiso  0.013678
    O1  O  1.0000  0.187500  0.812500  0.687500  Uiso  0.013678
    O1  O  1.0000  0.187500  0.812500  0.937500  Uiso  0.013678
    O1  O  1.0000  0.437500  0.812500  0.187500  Uiso  0.013678
    O1  O  1.0000  0.437500  0.812500  0.437500  Uiso  0.013678
    O1  O  1.0000  0.437500  0.812500  0.687500  Uiso  0.013678
    O1  O  1.0000  0.437500  0.812500  0.937500  Uiso  0.013678
    O1  O  1.0000  0.687500  0.812500  0.187500  Uiso  0.013678
    O1  O  1.0000  0.687500  0.812500  0.437500  Uiso  0.013678
    O1  O  1.0000  0.687500  0.812500  0.687500  Uiso  0.013678
    O1  O  1.0000  0.687500  0.812500  0.937500  Uiso  0.013678
    O1  O  1.0000  0.937500  0.812500  0.187500  Uiso  0.013678
    O1  O  1.0000  0.937500  0.812500  0.437500  Uiso  0.013678
    O1  O  1.0000  0.937500  0.812500  0.687500  Uiso  0.013678
    O1  O  1.0000  0.937500  0.812500  0.937500  Uiso  0.013678
    O1  O  1.0000  0.062500  0.187500  0.187500  Uiso  0.013678
    O1  O  1.0000  0.062500  0.187500  0.437500  Uiso  0.013678
    O1  O  1.0000  0.062500  0.187500  0.687500  Uiso  0.013678
    O1  O  1.0000  0.062500  0.187500  0.937500  Uiso  0.013678
    O1  O  1.0000  0.312500  0.187500  0.187500  Uiso  0.013678
    O1  O  1.0000  0.312500  0.187500  0.437500  Uiso  0.013678
    O1  O  1.0000  0.312500  0.187500  0.687500  Uiso  0.013678
    O1  O  1.0000  0.312500  0.187500  0.937500  Uiso  0.013678
    O1  O  1.0000  0.562500  0.187500  0.187500  Uiso  0.013678
    O1  O  1.0000  0.562500  0.187500  0.437500  Uiso  0.013678
    O1  O  1.0000  0.562500  0.187500  0.687500  Uiso  0.013678
    O1  O  1.0000  0.562500  0.187500  0.937500  Uiso  0.013678
    O1  O  1.0000  0.812500  0.187500  0.187500  Uiso  0.013678
    O1  O  1.0000  0.812500  0.187500  0.437500  Uiso  0.013678
    O1  O  1.0000  0.812500  0.187500  0.687500  Uiso  0.013678
    O1  O  1.0000  0.812500  0.187500  0.937500  Uiso  0.013678
    O1  O  1.0000  0.062500  0.437500  0.187500  Uiso  0.013678
    O1  O  1.0000  0.062500  0.437500  0.437500  Uiso  0.013678
    O1  O  1.0000  0.062500  0.437500  0.687500  Uiso  0.013678
    O1  O  1.0000  0.062500  0.437500  0.937500  Uiso  0.013678
    O1  O  1.0000  0.312500  0.437500  0.187500  Uiso  0.013678
    O1  O  1.0000  0.312500  0.437500  0.437500  Uiso  0.013678
    O1  O  1.0000  0.312500  0.437500  0.687500  Uiso  0.013678
    O1  O  1.0000  0.312500  0.437500  0.937500  Uiso  0.013678
    O1  O  1.0000  0.562500  0.437500  0.187500  Uiso  0.013678
    O1  O  1.0000  0.562500  0.437500  0.437500  Uiso  0.013678
    O1  O  1.0000  0.562500  0.437500  0.687500  Uiso  0.013678
    O1  O  1.0000  0.562500  0.437500  0.937500  Uiso  0.013678
    O1  O  1.0000  0.812500  0.437500  0.187500  Uiso  0.013678
    O1  O  1.0000  0.812500  0.437500  0.437500  Uiso  0.013678
    O1  O  1.0000  0.812500  0.437500  0.687500  Uiso  0.013678
    O1  O  1.0000  0.812500  0.437500  0.937500  Uiso  0.013678
    O1  O  1.0000  0.062500  0.687500  0.187500  Uiso  0.013678
    O1  O  1.0000  0.062500  0.687500  0.437500  Uiso  0.013678
    O1  O  1.0000  0.062500  0.687500  0.687500  Uiso  0.013678
    O1  O  1.0000  0.062500  0.687500  0.937500  Uiso  0.013678
    O1  O  1.0000  0.312500  0.687500  0.187500  Uiso  0.013678
    O1  O  1.0000  0.312500  0.687500  0.437500  Uiso  0.013678
    O1  O  1.0000  0.312500  0.687500  0.687500  Uiso  0.013678
    O1  O  1.0000  0.312500  0.687500  0.937500  Uiso  0.013678
    O1  O  1.0000  0.562500  0.687500  0.187500  Uiso  0.013678
    O1  O  1.0000  0.562500  0.687500  0.437500  Uiso  0.013678
    O1  O  1.0000  0.562500  0.687500  0.687500  Uiso  0.013678
    O1  O  1.0000  0.562500  0.687500  0.937500  Uiso  0.013678
    O1  O  1.0000  0.812500  0.687500  0.187500  Uiso  0.013678
    O1  O  1.0000  0.812500  0.687500  0.437500  Uiso  0.013678
    O1  O  1.0000  0.812500  0.687500  0.687500  Uiso  0.013678
    O1  O  1.0000  0.812500  0.687500  0.937500  Uiso  0.013678
    O1  O  1.0000  0.062500  0.937500  0.187500  Uiso  0.013678
    O1  O  1.0000  0.062500  0.937500  0.437500  Uiso  0.013678
    O1  O  1.0000  0.062500  0.937500  0.687500  Uiso  0.013678
    O1  O  1.0000  0.062500  0.937500  0.937500  Uiso  0.013678
    O1  O  1.0000  0.312500  0.937500  0.187500  Uiso  0.013678
    O1  O  1.0000  0.312500  0.937500  0.437500  Uiso  0.013678
    O1  O  1.0000  0.312500  0.937500  0.687500  Uiso  0.013678
    O1  O  1.0000  0.312500  0.937500  0.937500  Uiso  0.013678
    O1  O  1.0000  0.562500  0.937500  0.187500  Uiso  0.013678
    O1  O  1.0000  0.562500  0.937500  0.437500  Uiso  0.013678
    O1  O  1.0000  0.562500  0.937500  0.687500  Uiso  0.013678
    O1  O  1.0000  0.562500  0.937500  0.937500  Uiso  0.013678
    O1  O  1.0000  0.812500  0.937500  0.187500  Uiso  0.013678
    O1  O  1.0000  0.812500  0.937500  0.437500  Uiso  0.013678
    O1  O  1.0000  0.812500  0.937500  0.687500  Uiso  0.013678
    O1  O  1.0000  0.812500  0.937500  0.937500  Uiso  0.013678

# End of data_CELSLC
